WDeixler_Southern_Model_Code_SSPB/DistGenerators.dss
! Created with Distribute Command:
! Distribute kW=1600 PF=1 How=uniform Skip=1  file=DistGenerators.dss  what=Generators

new generator.DG_1  bus1=195_1467027.1 phases=1 kV=7.96743371482 kW=0.27477245406148 PF=1 model=1
new generator.DG_2  bus1=195_1467027.2 phases=1 kV=7.96743371482 kW=0.27477245406148 PF=1 model=1
new generator.DG_3  bus1=195_1467027.3 phases=1 kV=7.96743371482 kW=0.27477245406148 PF=1 model=1
new generator.DG_4  bus1=195_1494668.1 phases=1 kV=7.96743371482 kW=0.27477245406148 PF=1 model=1
new generator.DG_5  bus1=195_1494668.2 phases=1 kV=7.96743371482 kW=0.27477245406148 PF=1 model=1
new generator.DG_6  bus1=195_1494668.3 phases=1 kV=7.96743371482 kW=0.27477245406148 PF=1 model=1
new generator.DG_7  bus1=195_1470286.1 phases=1 kV=7.96743371482 kW=0.27477245406148 PF=1 model=1
new generator.DG_8  bus1=195_1470286.2 phases=1 kV=7.96743371482 kW=0.27477245406148 PF=1 model=1
new generator.DG_9  bus1=195_1470286.3 phases=1 kV=7.96743371482 kW=0.27477245406148 PF=1 model=1
new generator.DG_10  bus1=195_1461482.1 phases=1 kV=7.96743371482 kW=0.27477245406148 PF=1 model=1
new generator.DG_11  bus1=195_1461482.2 phases=1 kV=7.96743371482 kW=0.27477245406148 PF=1 model=1
new generator.DG_12  bus1=195_1461482.3 phases=1 kV=7.96743371482 kW=0.27477245406148 PF=1 model=1
new generator.DG_13  bus1=195_1484537.1 phases=1 kV=7.96743371482 kW=0.27477245406148 PF=1 model=1
new generator.DG_14  bus1=195_1484537.2 phases=1 kV=7.96743371482 kW=0.27477245406148 PF=1 model=1
new generator.DG_15  bus1=195_1484537.3 phases=1 kV=7.96743371482 kW=0.27477245406148 PF=1 model=1
new generator.DG_16  bus1=195_1496150.1 phases=1 kV=7.96743371482 kW=0.27477245406148 PF=1 model=1
new generator.DG_17  bus1=195_1496150.2 phases=1 kV=7.96743371482 kW=0.27477245406148 PF=1 model=1
new generator.DG_18  bus1=195_1496150.3 phases=1 kV=7.96743371482 kW=0.27477245406148 PF=1 model=1
new generator.DG_19  bus1=195_1470286.3 phases=1 kV=7.96743371482 kW=0.27477245406148 PF=1 model=1
new generator.DG_20  bus1=195_1470286.1 phases=1 kV=7.96743371482 kW=0.27477245406148 PF=1 model=1
new generator.DG_21  bus1=195_1470286.2 phases=1 kV=7.96743371482 kW=0.27477245406148 PF=1 model=1
new generator.DG_22  bus1=195_1489916.1 phases=1 kV=7.96743371482 kW=0.27477245406148 PF=1 model=1
new generator.DG_23  bus1=195_1489916.2 phases=1 kV=7.96743371482 kW=0.27477245406148 PF=1 model=1
new generator.DG_24  bus1=195_1489916.3 phases=1 kV=7.96743371482 kW=0.27477245406148 PF=1 model=1
new generator.DG_25  bus1=189_3739545.1 phases=1 kV=7.967433714828 kW=0.27477245406148 PF=1 model=1
new generator.DG_26  bus1=941_6309792.1.2.3 phases=3 kV=13.8 kW=0.27477245406148 PF=1 model=1
new generator.DG_27  bus1=941_6315057.1.2.3 phases=3 kV=13.8 kW=0.27477245406148 PF=1 model=1
new generator.DG_28  bus1=226_409546.1.2.3 phases=3 kV=13.8 kW=0.27477245406148 PF=1 model=1
new generator.DG_29  bus1=941_6309792.1.2.3 phases=3 kV=13.8 kW=0.27477245406148 PF=1 model=1
new generator.DG_30  bus1=188_12024.3 phases=1 kV=7.967433714828 kW=0.27477245406148 PF=1 model=1
new generator.DG_31  bus1=188_12918.2 phases=1 kV=7.967433714828 kW=0.27477245406148 PF=1 model=1
new generator.DG_32  bus1=941_6417492.2 phases=1 kV=7.967433714828 kW=0.27477245406148 PF=1 model=1
new generator.DG_33  bus1=195_1482195.1.2.3 phases=3 kV=13.8 kW=0.27477245406148 PF=1 model=1
new generator.DG_34  bus1=189_3751892.1.2.3 phases=3 kV=13.8 kW=0.27477245406148 PF=1 model=1
new generator.DG_35  bus1=189_3751891.1.2.3 phases=3 kV=13.8 kW=0.27477245406148 PF=1 model=1
new generator.DG_36  bus1=188_12739.1.2.3 phases=3 kV=13.8 kW=0.27477245406148 PF=1 model=1
new generator.DG_37  bus1=941_6430828.1.2.3 phases=3 kV=13.8 kW=0.27477245406148 PF=1 model=1
new generator.DG_38  bus1=189_3735066.1.2.3 phases=3 kV=13.8 kW=0.27477245406148 PF=1 model=1
new generator.DG_39  bus1=195_1467482.1.2.3 phases=3 kV=13.8 kW=0.27477245406148 PF=1 model=1
new generator.DG_40  bus1=941_6308997.2.3 phases=2 kV=13.8 kW=0.27477245406148 PF=1 model=1
new generator.DG_41  bus1=189_2629571.1.2.3 phases=3 kV=13.8 kW=0.27477245406148 PF=1 model=1
new generator.DG_42  bus1=941_9052479.1.2.3 phases=3 kV=13.8 kW=0.27477245406148 PF=1 model=1
new generator.DG_43  bus1=941_6309113.1.2.3 phases=3 kV=13.8 kW=0.27477245406148 PF=1 model=1
new generator.DG_44  bus1=941_6309113.1.2.3 phases=3 kV=13.8 kW=0.27477245406148 PF=1 model=1
new generator.DG_45  bus1=195_1473511.1.2.3 phases=3 kV=13.8 kW=0.27477245406148 PF=1 model=1
new generator.DG_46  bus1=195_1473511.1.2.3 phases=3 kV=13.8 kW=0.27477245406148 PF=1 model=1
new generator.DG_47  bus1=941_6962275.1.2.3 phases=3 kV=13.8 kW=0.27477245406148 PF=1 model=1
new generator.DG_48  bus1=941_8983174.1.2.3 phases=3 kV=13.8 kW=0.27477245406148 PF=1 model=1
new generator.DG_49  bus1=941_6356829.1 phases=1 kV=7.967433714828 kW=0.27477245406148 PF=1 model=1
new generator.DG_50  bus1=941_6356829.1 phases=1 kV=7.967433714828 kW=0.27477245406148 PF=1 model=1
new generator.DG_51  bus1=941_6356829.1 phases=1 kV=7.967433714828 kW=0.27477245406148 PF=1 model=1
new generator.DG_52  bus1=195_1493749.1 phases=1 kV=7.967433714828 kW=0.27477245406148 PF=1 model=1
new generator.DG_53  bus1=941_6309011.2 phases=1 kV=7.967433714828 kW=0.27477245406148 PF=1 model=1
new generator.DG_54  bus1=941_8998836.2 phases=1 kV=7.967433714828 kW=0.27477245406148 PF=1 model=1
new generator.DG_55  bus1=941_6314923.1 phases=1 kV=7.967433714828 kW=0.27477245406148 PF=1 model=1
new generator.DG_56  bus1=195_1467504.1 phases=1 kV=7.967433714828 kW=0.27477245406148 PF=1 model=1
new generator.DG_57  bus1=189_2617127.1 phases=1 kV=7.967433714828 kW=0.27477245406148 PF=1 model=1
new generator.DG_58  bus1=195_1475060.1.2.3 phases=3 kV=13.8 kW=0.27477245406148 PF=1 model=1
new generator.DG_59  bus1=204_669285.1 phases=1 kV=7.967433714828 kW=0.27477245406148 PF=1 model=1
new generator.DG_60  bus1=941_6308985.1 phases=1 kV=7.967433714828 kW=0.27477245406148 PF=1 model=1
new generator.DG_61  bus1=188_12702.1 phases=1 kV=7.967433714828 kW=0.27477245406148 PF=1 model=1
new generator.DG_62  bus1=941_9001142.1 phases=1 kV=7.967433714828 kW=0.27477245406148 PF=1 model=1
new generator.DG_63  bus1=188_12030.1 phases=1 kV=7.967433714828 kW=0.27477245406148 PF=1 model=1
new generator.DG_64  bus1=941_7275691.1 phases=1 kV=7.967433714828 kW=0.27477245406148 PF=1 model=1
new generator.DG_65  bus1=941_8979176.1.2.3 phases=3 kV=13.8 kW=0.27477245406148 PF=1 model=1
new generator.DG_66  bus1=188_12233.1.2 phases=2 kV=13.8 kW=0.27477245406148 PF=1 model=1
new generator.DG_67  bus1=189_3752210.1.2 phases=2 kV=13.8 kW=0.27477245406148 PF=1 model=1
new generator.DG_68  bus1=195_1489221.2 phases=1 kV=7.967433714828 kW=0.27477245406148 PF=1 model=1
new generator.DG_69  bus1=941_6309089.2.3 phases=2 kV=13.8 kW=0.27477245406148 PF=1 model=1
new generator.DG_70  bus1=189_3751811.2.3 phases=2 kV=13.8 kW=0.27477245406148 PF=1 model=1
new generator.DG_71  bus1=941_9000411.2.3 phases=2 kV=13.8 kW=0.27477245406148 PF=1 model=1
new generator.DG_72  bus1=941_6278374.2 phases=1 kV=7.967433714828 kW=0.27477245406148 PF=1 model=1
new generator.DG_73  bus1=195_1482794.3 phases=1 kV=7.967433714828 kW=0.27477245406148 PF=1 model=1
new generator.DG_74  bus1=204_676509.2 phases=1 kV=7.967433714828 kW=0.27477245406148 PF=1 model=1
new generator.DG_75  bus1=941_6278402.2 phases=1 kV=7.967433714828 kW=0.27477245406148 PF=1 model=1
new generator.DG_76  bus1=195_1467316.1.2.3 phases=3 kV=13.8 kW=0.27477245406148 PF=1 model=1
new generator.DG_77  bus1=195_1461263.3 phases=1 kV=7.967433714828 kW=0.27477245406148 PF=1 model=1
new generator.DG_78  bus1=941_6297338.2 phases=1 kV=7.967433714828 kW=0.27477245406148 PF=1 model=1
new generator.DG_79  bus1=195_1472680.3 phases=1 kV=7.967433714828 kW=0.27477245406148 PF=1 model=1
new generator.DG_80  bus1=195_1470331.1.2.3 phases=3 kV=13.8 kW=0.27477245406148 PF=1 model=1
new generator.DG_81  bus1=195_1472682.1.2.3 phases=3 kV=13.8 kW=0.27477245406148 PF=1 model=1
new generator.DG_82  bus1=941_6309077.1.2.3 phases=3 kV=13.8 kW=0.27477245406148 PF=1 model=1
new generator.DG_83  bus1=188_4118.1.2.3 phases=3 kV=13.8 kW=0.27477245406148 PF=1 model=1
new generator.DG_84  bus1=195_1496148.2 phases=1 kV=7.967433714828 kW=0.27477245406148 PF=1 model=1
new generator.DG_85  bus1=226_409561.1.2.3 phases=3 kV=13.8 kW=0.27477245406148 PF=1 model=1
new generator.DG_86  bus1=195_1475077.2 phases=1 kV=7.967433714828 kW=0.27477245406148 PF=1 model=1
new generator.DG_87  bus1=941_8995242.2 phases=1 kV=7.967433714828 kW=0.27477245406148 PF=1 model=1
new generator.DG_88  bus1=188_4157.2 phases=1 kV=7.967433714828 kW=0.27477245406148 PF=1 model=1
new generator.DG_89  bus1=189_2617893.1 phases=1 kV=7.967433714828 kW=0.27477245406148 PF=1 model=1
new generator.DG_90  bus1=204_668711.1 phases=1 kV=7.967433714828 kW=0.27477245406148 PF=1 model=1
new generator.DG_91  bus1=941_6309094.1 phases=1 kV=7.967433714828 kW=0.27477245406148 PF=1 model=1
new generator.DG_92  bus1=189_2617893.1 phases=1 kV=7.967433714828 kW=0.27477245406148 PF=1 model=1
new generator.DG_93  bus1=941_6359179.1 phases=1 kV=7.967433714828 kW=0.27477245406148 PF=1 model=1
new generator.DG_94  bus1=195_1492231.3 phases=1 kV=7.967433714828 kW=0.27477245406148 PF=1 model=1
new generator.DG_95  bus1=204_672760.2 phases=1 kV=7.967433714828 kW=0.27477245406148 PF=1 model=1
new generator.DG_96  bus1=941_6298896.2 phases=1 kV=7.967433714828 kW=0.27477245406148 PF=1 model=1
new generator.DG_97  bus1=189_3752089.2 phases=1 kV=7.967433714828 kW=0.27477245406148 PF=1 model=1
new generator.DG_98  bus1=204_1251684.2 phases=1 kV=7.967433714828 kW=0.27477245406148 PF=1 model=1
new generator.DG_99  bus1=941_6403968.2 phases=1 kV=7.967433714828 kW=0.27477245406148 PF=1 model=1
new generator.DG_100  bus1=941_6403965.2 phases=1 kV=7.967433714828 kW=0.27477245406148 PF=1 model=1
new generator.DG_101  bus1=204_674423.2 phases=1 kV=7.967433714828 kW=0.27477245406148 PF=1 model=1
new generator.DG_102  bus1=941_8995012.2 phases=1 kV=7.967433714828 kW=0.27477245406148 PF=1 model=1
new generator.DG_103  bus1=195_1461276.1 phases=1 kV=7.967433714828 kW=0.27477245406148 PF=1 model=1
new generator.DG_104  bus1=941_8995871.1 phases=1 kV=7.967433714828 kW=0.27477245406148 PF=1 model=1
new generator.DG_105  bus1=188_12226.3 phases=1 kV=7.967433714828 kW=0.27477245406148 PF=1 model=1
new generator.DG_106  bus1=941_6278411.2 phases=1 kV=7.967433714828 kW=0.27477245406148 PF=1 model=1
new generator.DG_107  bus1=941_6298205.1.2.3 phases=3 kV=13.8 kW=0.27477245406148 PF=1 model=1
new generator.DG_108  bus1=204_670250.2 phases=1 kV=7.967433714828 kW=0.27477245406148 PF=1 model=1
new generator.DG_109  bus1=188_12232.1.2.3 phases=3 kV=13.8 kW=0.27477245406148 PF=1 model=1
new generator.DG_110  bus1=204_672470.1 phases=1 kV=7.967433714828 kW=0.27477245406148 PF=1 model=1
new generator.DG_111  bus1=941_8993918.1 phases=1 kV=7.967433714828 kW=0.27477245406148 PF=1 model=1
new generator.DG_112  bus1=204_672470.1 phases=1 kV=7.967433714828 kW=0.27477245406148 PF=1 model=1
new generator.DG_113  bus1=188_12188.3 phases=1 kV=7.967433714828 kW=0.27477245406148 PF=1 model=1
new generator.DG_114  bus1=195_1467298.3 phases=1 kV=7.967433714828 kW=0.27477245406148 PF=1 model=1
new generator.DG_115  bus1=195_1489907.2 phases=1 kV=7.967433714828 kW=0.27477245406148 PF=1 model=1
new generator.DG_116  bus1=189_3737151.1 phases=1 kV=7.967433714828 kW=0.27477245406148 PF=1 model=1
new generator.DG_117  bus1=941_6309032.2 phases=1 kV=7.967433714828 kW=0.27477245406148 PF=1 model=1
new generator.DG_118  bus1=188_11790.1.2.3 phases=3 kV=13.8 kW=0.27477245406148 PF=1 model=1
new generator.DG_119  bus1=195_1467311.2 phases=1 kV=7.967433714828 kW=0.27477245406148 PF=1 model=1
new generator.DG_120  bus1=204_671520.1 phases=1 kV=7.967433714828 kW=0.27477245406148 PF=1 model=1
new generator.DG_121  bus1=189_3735558.1 phases=1 kV=7.967433714828 kW=0.27477245406148 PF=1 model=1
new generator.DG_122  bus1=204_668826.3 phases=1 kV=7.967433714828 kW=0.27477245406148 PF=1 model=1
new generator.DG_123  bus1=941_6278363.2.3 phases=2 kV=13.8 kW=0.27477245406148 PF=1 model=1
new generator.DG_124  bus1=204_669691.2 phases=1 kV=7.967433714828 kW=0.27477245406148 PF=1 model=1
new generator.DG_125  bus1=189_3752126.2 phases=1 kV=7.967433714828 kW=0.27477245406148 PF=1 model=1
new generator.DG_126  bus1=204_673740.1 phases=1 kV=7.967433714828 kW=0.27477245406148 PF=1 model=1
new generator.DG_127  bus1=189_2641712.1 phases=1 kV=7.967433714828 kW=0.27477245406148 PF=1 model=1
new generator.DG_128  bus1=204_673303.1.2.3 phases=3 kV=13.8 kW=0.27477245406148 PF=1 model=1
new generator.DG_129  bus1=189_2617545.1.2.3 phases=3 kV=13.8 kW=0.27477245406148 PF=1 model=1
new generator.DG_130  bus1=941_6309102.2 phases=1 kV=7.967433714828 kW=0.27477245406148 PF=1 model=1
new generator.DG_131  bus1=941_8981416.3 phases=1 kV=7.967433714828 kW=0.27477245406148 PF=1 model=1
new generator.DG_132  bus1=188_12046.2 phases=1 kV=7.967433714828 kW=0.27477245406148 PF=1 model=1
new generator.DG_133  bus1=226_187184.1.2.3 phases=3 kV=13.8 kW=0.27477245406148 PF=1 model=1
new generator.DG_134  bus1=195_1482026.2 phases=1 kV=7.967433714828 kW=0.27477245406148 PF=1 model=1
new generator.DG_135  bus1=941_6337331.2.3 phases=2 kV=13.8 kW=0.27477245406148 PF=1 model=1
new generator.DG_136  bus1=189_3751812.2.3 phases=2 kV=13.8 kW=0.27477245406148 PF=1 model=1
new generator.DG_137  bus1=941_6309038.2.3 phases=2 kV=13.8 kW=0.27477245406148 PF=1 model=1
new generator.DG_138  bus1=195_1482028.2 phases=1 kV=7.967433714828 kW=0.27477245406148 PF=1 model=1
new generator.DG_139  bus1=188_12247.3 phases=1 kV=7.967433714828 kW=0.27477245406148 PF=1 model=1
new generator.DG_140  bus1=195_1470339.2 phases=1 kV=7.967433714828 kW=0.27477245406148 PF=1 model=1
new generator.DG_141  bus1=195_1479832.1 phases=1 kV=7.967433714828 kW=0.27477245406148 PF=1 model=1
new generator.DG_142  bus1=195_1479710.2 phases=1 kV=7.967433714828 kW=0.27477245406148 PF=1 model=1
new generator.DG_143  bus1=189_3738203.2 phases=1 kV=7.967433714828 kW=0.27477245406148 PF=1 model=1
new generator.DG_144  bus1=941_8997571.2 phases=1 kV=7.967433714828 kW=0.27477245406148 PF=1 model=1
new generator.DG_145  bus1=195_1484415.1 phases=1 kV=7.967433714828 kW=0.27477245406148 PF=1 model=1
new generator.DG_146  bus1=195_1491317.2 phases=1 kV=7.967433714828 kW=0.27477245406148 PF=1 model=1
new generator.DG_147  bus1=189_3739517.2 phases=1 kV=7.967433714828 kW=0.27477245406148 PF=1 model=1
new generator.DG_148  bus1=941_6308979.1 phases=1 kV=7.967433714828 kW=0.27477245406148 PF=1 model=1
new generator.DG_149  bus1=189_2617890.2 phases=1 kV=7.967433714828 kW=0.27477245406148 PF=1 model=1
new generator.DG_150  bus1=941_6309001.2 phases=1 kV=7.967433714828 kW=0.27477245406148 PF=1 model=1
new generator.DG_151  bus1=204_671090.2 phases=1 kV=7.967433714828 kW=0.27477245406148 PF=1 model=1
new generator.DG_152  bus1=189_3738066.2 phases=1 kV=7.967433714828 kW=0.27477245406148 PF=1 model=1
new generator.DG_153  bus1=195_1477416.1 phases=1 kV=7.967433714828 kW=0.27477245406148 PF=1 model=1
new generator.DG_154  bus1=941_6308954.1 phases=1 kV=7.967433714828 kW=0.27477245406148 PF=1 model=1
new generator.DG_155  bus1=195_1468475.3 phases=1 kV=7.967433714828 kW=0.27477245406148 PF=1 model=1
new generator.DG_156  bus1=189_3753153.3 phases=1 kV=7.967433714828 kW=0.27477245406148 PF=1 model=1
new generator.DG_157  bus1=941_6308968.1 phases=1 kV=7.967433714828 kW=0.27477245406148 PF=1 model=1
new generator.DG_158  bus1=189_3751781.1 phases=1 kV=7.967433714828 kW=0.27477245406148 PF=1 model=1
new generator.DG_159  bus1=188_12026.1.2.3 phases=3 kV=13.8 kW=0.27477245406148 PF=1 model=1
new generator.DG_160  bus1=941_3233634.1.2.3 phases=3 kV=13.8 kW=0.27477245406148 PF=1 model=1
new generator.DG_161  bus1=226_409508.1.2.3 phases=3 kV=13.8 kW=0.27477245406148 PF=1 model=1
new generator.DG_162  bus1=189_3742556.1.2.3 phases=3 kV=13.8 kW=0.27477245406148 PF=1 model=1
new generator.DG_163  bus1=204_671105.1 phases=1 kV=7.967433714828 kW=0.27477245406148 PF=1 model=1
new generator.DG_164  bus1=195_1484365.1 phases=1 kV=7.967433714828 kW=0.27477245406148 PF=1 model=1
new generator.DG_165  bus1=195_1485289.1.2.3 phases=3 kV=13.8 kW=0.27477245406148 PF=1 model=1
new generator.DG_166  bus1=941_6295237.1 phases=1 kV=7.967433714828 kW=0.27477245406148 PF=1 model=1
new generator.DG_167  bus1=204_670033.1.2.3 phases=3 kV=13.8 kW=0.27477245406148 PF=1 model=1
new generator.DG_168  bus1=195_1475121.1 phases=1 kV=7.967433714828 kW=0.27477245406148 PF=1 model=1
new generator.DG_169  bus1=941_6303825.1 phases=1 kV=7.967433714828 kW=0.27477245406148 PF=1 model=1
new generator.DG_170  bus1=189_3737924.1 phases=1 kV=7.967433714828 kW=0.27477245406148 PF=1 model=1
new generator.DG_171  bus1=941_8997724.1 phases=1 kV=7.967433714828 kW=0.27477245406148 PF=1 model=1
new generator.DG_172  bus1=195_1475056.1 phases=1 kV=7.967433714828 kW=0.27477245406148 PF=1 model=1
new generator.DG_173  bus1=941_6681605.3 phases=1 kV=7.967433714828 kW=0.27477245406148 PF=1 model=1
new generator.DG_174  bus1=941_6315064.3 phases=1 kV=7.967433714828 kW=0.27477245406148 PF=1 model=1
new generator.DG_175  bus1=195_1467818.1 phases=1 kV=7.967433714828 kW=0.27477245406148 PF=1 model=1
new generator.DG_176  bus1=941_6309027.1 phases=1 kV=7.967433714828 kW=0.27477245406148 PF=1 model=1
new generator.DG_177  bus1=195_2312241.1 phases=1 kV=7.967433714828 kW=0.27477245406148 PF=1 model=1
new generator.DG_178  bus1=941_8999064.1 phases=1 kV=7.967433714828 kW=0.27477245406148 PF=1 model=1
new generator.DG_179  bus1=204_671990.3 phases=1 kV=7.967433714828 kW=0.27477245406148 PF=1 model=1
new generator.DG_180  bus1=226_409517.1.2.3 phases=3 kV=13.8 kW=0.27477245406148 PF=1 model=1
new generator.DG_181  bus1=189_3741818.1.2.3 phases=3 kV=13.8 kW=0.27477245406148 PF=1 model=1
new generator.DG_182  bus1=195_1461256.3 phases=1 kV=7.967433714828 kW=0.27477245406148 PF=1 model=1
new generator.DG_183  bus1=189_3752056.1.2.3 phases=3 kV=13.8 kW=0.27477245406148 PF=1 model=1
new generator.DG_184  bus1=189_3752056.1.2.3 phases=3 kV=13.8 kW=0.27477245406148 PF=1 model=1
new generator.DG_185  bus1=195_1467291.2 phases=1 kV=7.967433714828 kW=0.27477245406148 PF=1 model=1
new generator.DG_186  bus1=941_6417780.2 phases=1 kV=7.967433714828 kW=0.27477245406148 PF=1 model=1
new generator.DG_187  bus1=188_12550.1 phases=1 kV=7.967433714828 kW=0.27477245406148 PF=1 model=1
new generator.DG_188  bus1=195_1479735.1.2.3 phases=3 kV=13.8 kW=0.27477245406148 PF=1 model=1
new generator.DG_189  bus1=941_6278415.1.2.3 phases=3 kV=13.8 kW=0.27477245406148 PF=1 model=1
new generator.DG_190  bus1=204_1251688.3 phases=1 kV=7.967433714828 kW=0.27477245406148 PF=1 model=1
new generator.DG_191  bus1=195_1467323.3 phases=1 kV=7.967433714828 kW=0.27477245406148 PF=1 model=1
new generator.DG_192  bus1=188_12101.3 phases=1 kV=7.967433714828 kW=0.27477245406148 PF=1 model=1
new generator.DG_193  bus1=941_8982997.1.2 phases=2 kV=13.8 kW=0.27477245406148 PF=1 model=1
new generator.DG_194  bus1=941_5680209.1.2 phases=2 kV=13.8 kW=0.27477245406148 PF=1 model=1
new generator.DG_195  bus1=941_6446178.1.2 phases=2 kV=13.8 kW=0.27477245406148 PF=1 model=1
new generator.DG_196  bus1=204_668974.3 phases=1 kV=7.967433714828 kW=0.27477245406148 PF=1 model=1
new generator.DG_197  bus1=204_668974.3 phases=1 kV=7.967433714828 kW=0.27477245406148 PF=1 model=1
new generator.DG_198  bus1=941_9001542.3 phases=1 kV=7.967433714828 kW=0.27477245406148 PF=1 model=1
new generator.DG_199  bus1=189_3738177.1.2.3 phases=3 kV=13.8 kW=0.27477245406148 PF=1 model=1
new generator.DG_200  bus1=195_1482143.1.2.3 phases=3 kV=13.8 kW=0.27477245406148 PF=1 model=1
...
